Version 4
SHEET 1 1640 916
WIRE 1008 -816 912 -816
WIRE 912 -800 912 -816
WIRE 912 -704 912 -720
WIRE 144 -640 -80 -640
WIRE 224 -640 144 -640
WIRE 608 -640 304 -640
WIRE 144 -608 144 -640
WIRE -160 -528 -176 -528
WIRE 0 -528 -96 -528
WIRE 1008 -528 1008 -816
WIRE 1008 -528 800 -528
WIRE 608 -480 608 -640
WIRE 800 -464 800 -528
WIRE -80 -448 -80 -640
WIRE -176 -432 -176 -528
WIRE -112 -432 -176 -432
WIRE 0 -416 0 -528
WIRE 0 -416 -48 -416
WIRE 160 -416 0 -416
WIRE 496 -416 240 -416
WIRE 560 -416 496 -416
WIRE 736 -416 656 -416
WIRE -112 -400 -416 -400
WIRE 1008 -384 1008 -528
WIRE -416 -352 -416 -400
WIRE 496 -336 496 -416
WIRE 800 -336 800 -368
WIRE 944 -336 800 -336
WIRE 800 -320 800 -336
WIRE -176 -288 -176 -432
WIRE 432 -288 0 -288
WIRE -176 -176 -176 -208
WIRE -96 -176 -176 -176
WIRE -176 -144 -176 -176
WIRE 800 -112 800 -240
WIRE 1008 -112 1008 -288
WIRE 1008 -112 800 -112
WIRE 832 64 688 64
WIRE 1008 64 1008 -112
WIRE 1008 64 960 64
WIRE 688 112 688 64
WIRE 1008 160 1008 64
WIRE 272 176 144 176
WIRE 144 224 144 176
WIRE 832 304 832 64
WIRE 1008 304 1008 240
WIRE 1008 304 832 304
WIRE 1152 304 1008 304
WIRE 272 320 272 176
WIRE 512 336 512 304
WIRE 512 336 304 336
WIRE 0 352 0 -288
WIRE 240 352 80 352
WIRE 368 368 304 368
WIRE 512 368 512 336
WIRE 640 368 640 304
WIRE 688 368 688 304
WIRE 688 368 640 368
WIRE 880 368 880 64
WIRE 880 368 688 368
WIRE 368 496 368 368
WIRE -96 624 -96 -176
WIRE 1008 624 1008 304
WIRE 1008 624 -96 624
WIRE 1008 656 1008 624
WIRE 1008 816 1008 736
FLAG -80 -384 0
FLAG 144 -528 0
FLAG 912 -704 0
FLAG -176 -64 0
FLAG -416 -272 0
FLAG 1008 896 0
FLAG 640 112 0
FLAG 512 448 0
FLAG 496 -240 0
FLAG 272 384 0
FLAG 144 304 0
FLAG 368 576 0
FLAG 1152 368 0
SYMBOL npn 736 -464 R0
SYMATTR InstName Q1
SYMBOL npn 944 -384 R0
SYMATTR InstName Q2
SYMBOL res 784 -336 R0
SYMATTR InstName R1
SYMATTR Value 470
SYMBOL Opamps\\ADA4891 -80 -480 R0
SYMATTR InstName U2
SYMBOL res 256 -432 R90
WINDOW 0 0 56 VBottom 2
WINDOW 3 32 56 VTop 2
SYMATTR InstName R2
SYMATTR Value 220
SYMBOL voltage 912 -816 R0
WINDOW 123 0 0 Left 0
WINDOW 39 0 0 Left 0
SYMATTR InstName V1
SYMATTR Value 24
SYMBOL voltage 144 -624 R0
WINDOW 123 0 0 Left 0
WINDOW 39 0 0 Left 0
SYMATTR InstName V2
SYMATTR Value 5
SYMBOL res -192 -304 R0
SYMATTR InstName R4
SYMATTR Value 1k
SYMBOL res -192 -160 R0
SYMATTR InstName R5
SYMATTR Value 1k
SYMBOL voltage -416 -368 R0
WINDOW 123 0 0 Left 0
WINDOW 39 0 0 Left 0
SYMATTR InstName V3
SYMATTR Value .5
SYMBOL current 1008 816 R0
WINDOW 123 0 0 Left 0
WINDOW 39 0 0 Left 0
SYMATTR InstName I1
SYMATTR Value PULSE(0 2 .1 1u 1u 1m)
SYMBOL res 992 144 R0
SYMATTR InstName R3
SYMATTR Value .1
SYMBOL Opamps\\LT6106 624 208 R90
SYMATTR InstName U1
SYMBOL res 976 48 R90
WINDOW 0 0 56 VBottom 2
WINDOW 3 32 56 VTop 2
SYMATTR InstName R6
SYMATTR Value 100
SYMBOL res 496 352 R0
SYMATTR InstName R7
SYMATTR Value 1000
SYMBOL Opamps\\ADA4891 272 288 M0
SYMATTR InstName U3
SYMBOL pnp 432 -240 M180
SYMATTR InstName Q4
SYMBOL res 96 336 R90
WINDOW 0 0 56 VBottom 2
WINDOW 3 32 56 VTop 2
SYMATTR InstName R8
SYMATTR Value 220
SYMBOL voltage 144 208 R0
WINDOW 123 0 0 Left 0
WINDOW 39 0 0 Left 0
SYMATTR InstName V4
SYMATTR Value 5
SYMBOL voltage 368 480 R0
WINDOW 123 0 0 Left 0
WINDOW 39 0 0 Left 0
SYMATTR InstName V5
SYMATTR Value 0.8
SYMBOL ind 992 640 R0
SYMATTR InstName L1
SYMATTR Value 1n
SYMBOL cap 1136 304 R0
SYMATTR InstName C1
SYMATTR Value 10µ
SYMBOL npn 560 -480 M90
SYMATTR InstName Q3
SYMBOL res 320 -656 R90
WINDOW 0 0 56 VBottom 2
WINDOW 3 32 56 VTop 2
SYMATTR InstName R9
SYMATTR Value 220
SYMBOL cap -96 -544 R90
WINDOW 0 0 32 VBottom 2
WINDOW 3 32 32 VTop 2
SYMATTR InstName C2
SYMATTR Value 1p
TEXT 1200 -8 Left 2 !.tran 0 .5 0
